                                  MODFLOW-2005     
      U.S. GEOLOGICAL SURVEY MODULAR FINITE-DIFFERENCE GROUND-WATER FLOW MODEL
                            VERSION 1.11.00 8/8/2013

If you are attempting to run MODFLOW, you are making a big ***ERROR***. This is not MODFLOW. This program should only be used for importing existing models into ModelMuse.
 LIST FILE: WB19BS1E0003_PT.list
                         UNIT   10
 OPENING:
          11 WB19BS1E0003_PT.dis

 OPENING WB19BS1E0003_PT.dis
 FILE TYPE:DIS   UNIT   11   STATUS:OLD    
 FORMAT:FORMATTED              ACCESS:SEQUENTIAL          
 OPENING:
          12 WB19BS1E0003_PT.bas6

 OPENING WB19BS1E0003_PT.bas6
 FILE TYPE:BAS6   UNIT   12   STATUS:OLD    
 FORMAT:FORMATTED              ACCESS:SEQUENTIAL          
 OPENING:
          13 WB19BS1E0003_PT.lpf

 OPENING WB19BS1E0003_PT.lpf
 FILE TYPE:LPF   UNIT   13   STATUS:OLD    
 FORMAT:FORMATTED              ACCESS:SEQUENTIAL          
 OPENING:
          14 WB19BS1E0003_PT.zon

 OPENING WB19BS1E0003_PT.zon
 FILE TYPE:ZONE   UNIT   14   STATUS:OLD    
 FORMAT:FORMATTED              ACCESS:SEQUENTIAL          

 BAS -- BASIC PACKAGE, VERSION 7, 5/2/2005 INPUT READ FROM UNIT   12

 DISCRETIZATION INPUT DATA READ FROM UNIT   11
 COMMENT:
                                                                                                                                                                                # World origin and angle
 COMMENT:
                                                                                                                                                                          # 522500.000 7509800.000 0.000
 COMMENT:
                                                                                                                                                                                                       #
 DIS:
 NLAY, NROW, NCOL, NPER, ITMUNI, LENUNI:
          17          50          75           1           4           2
 LAYCBD(K):
           0           0           0           0           0           0
           0           0           0           0           0           0
           0           0           0           0           0
 VARIABLE 1D REAL ARRAY:
                     DELR
   20.00000       20.00000       20.00000       20.00000       20.00000    
   20.00000       20.00000       20.00000       20.00000       20.00000    
   20.00000       20.00000       20.00000       20.00000       20.00000    
   20.00000       20.00000       20.00000       20.00000       20.00000    
   20.00000       20.00000       20.00000       20.00000       20.00000    
   20.00000       20.00000       20.00000       20.00000       20.00000    
   20.00000       20.00000       20.00000       20.00000       20.00000    
   20.00000       20.00000       20.00000       20.00000       20.00000    
   20.00000       20.00000       20.00000       20.00000       20.00000    
   20.00000       20.00000       20.00000       20.00000       20.00000    
   20.00000       20.00000       20.00000       20.00000       20.00000    
   20.00000       20.00000       20.00000       20.00000       20.00000    
   20.00000       20.00000       20.00000       20.00000       20.00000    
   20.00000       20.00000       20.00000       20.00000       20.00000    
   20.00000       20.00000       20.00000       20.00000       20.00000    
 VARIABLE 1D REAL ARRAY:
                     DELC
   20.00000       20.00000       20.00000       20.00000       20.00000    
   20.00000       20.00000       20.00000       20.00000       20.00000    
   20.00000       20.00000       20.00000       20.00000       20.00000    
   20.00000       20.00000       20.00000       20.00000       20.00000    
   20.00000       20.00000       20.00000       20.00000       20.00000    
   20.00000       20.00000       20.00000       20.00000       20.00000    
   20.00000       20.00000       20.00000       20.00000       20.00000    
   20.00000       20.00000       20.00000       20.00000       20.00000    
   20.00000       20.00000       20.00000       20.00000       20.00000    
   20.00000       20.00000       20.00000       20.00000       20.00000    
 VARIABLE 2D REAL ARRAY:
 TOP ELEVATION OF LAYER 1
   565.0000       565.0000       565.0000       565.0000       565.0000    
   565.0000       565.0000       565.0000       565.0000       565.0000    
   565.0000       565.0000       565.0000       565.0000       565.0000    
   565.0000       565.0000       565.0000       565.0000       565.0000    
   565.0000       565.0000       565.0000       565.0000       565.0000    
   565.0000       565.0000       565.0000       565.0000       565.0000    
   565.0000       565.0000       565.0000       565.0000       565.0000    
   565.0000       565.0000       565.0000       565.0000       565.0000    
   565.0000       565.0000       565.0000       565.0000       565.0000    
   565.0000       565.0000       565.0000       565.0000       565.0000    
   565.0000       565.0000       565.0000       565.0000       565.0000    
   565.0000       565.0000       565.0000       565.0000       565.0000    
   565.0000       565.0000       565.0000       565.0000       565.0000    
   565.0000       565.0000       565.0000       565.0000       565.0000    
   565.0000       565.0000       565.0000       565.0000       565.0000    
   565.0000       565.0000       565.0000       565.0000       565.0000    
   565.0000       565.0000       565.0000       565.0000       565.0000    
   565.0000       565.0000       565.0000       565.0000       565.0000    
   565.0000       565.0000       565.0000       565.0000       565.0000    
   565.0000       565.0000       565.0000       565.0000       565.0000    
   565.0000       565.0000       565.0000       565.0000       565.0000    
   565.0000       565.0000       565.0000       565.0000       565.0000    
   565.0000       565.0000       565.0000       565.0000       565.0000    
   565.0000       565.0000       565.0000       565.0000       565.0000    
   565.0000       565.0000       565.0000       565.0000       565.0000    
   565.0000       565.0000       565.0000       565.0000       565.0000    
   565.0000       565.0000       565.0000       565.0000       565.0000    
   565.0000       565.0000       565.0000       565.0000       565.0000    
   565.0000       565.0000       565.0000       565.0000       565.0000    
   565.0000       565.0000       565.0000       565.0000       565.0000    
   565.0000       565.0000       565.0000       565.0000       565.0000    
   565.0000       565.0000       565.0000       565.0000       565.0000    
   565.0000       565.0000       565.0000       565.0000       565.0000    
   565.0000       565.0000       565.0000       565.0000       565.0000    
   565.0000       565.0000       565.0000       565.0000       565.0000    
   565.0000       565.0000       565.0000       565.0000       565.0000    
   565.0000       565.0000       565.0000       565.0000       565.0000    
   565.0000       565.0000       565.0000       565.0000       565.0000    
   565.0000       565.0000       565.0000       565.0000       565.0000    
   565.0000       565.0000       565.0000       565.0000       565.0000    
   565.0000       565.0000       565.0000       565.0000       565.0000    
   565.0000       565.0000       565.0000       565.0000       565.0000    
   565.0000       565.0000       565.0000       565.0000       565.0000    
   565.0000       565.0000       565.0000       565.0000       565.0000    
   565.0000       565.0000       565.0000       565.0000       565.0000    
   565.0000       565.0000       565.0000       565.0000       565.0000    
   565.0000       565.0000       565.0000       565.0000       565.0000    
   565.0000       565.0000       565.0000       565.0000       565.0000    
   565.0000       565.0000       565.0000       565.0000       565.0000    
   565.0000       565.0000       565.0000       565.0000       565.0000    
   565.0000       565.0000       565.0000       565.0000       565.0000    
   565.0000       565.0000       565.0000       565.0000       565.0000    
   565.0000       565.0000       565.0000       565.0000       565.0000    
   565.0000       565.0000       565.0000       565.0000       565.0000    
   565.0000       565.0000       565.0000       565.0000       565.0000    
   565.0000       565.0000       565.0000       565.0000       565.0000    
   565.0000       565.0000       565.0000       565.0000       565.0000    
   565.0000       565.0000       565.0000       565.0000       565.0000    
   565.0000       565.0000       565.0000       565.0000       565.0000    
   565.0000       565.0000       565.0000       565.0000       565.0000    
   565.0000       565.0000       565.0000       565.0000       565.0000    
   565.0000       565.0000       565.0000       565.0000       565.0000    
   565.0000       565.0000       565.0000       565.0000       565.0000    
   565.0000       565.0000       565.0000       565.0000       565.0000    
   565.0000       565.0000       565.0000       565.0000       565.0000    
   565.0000       565.0000       565.0000       565.0000       565.0000    
   565.0000       565.0000       565.0000       565.0000       565.0000    
   565.0000       565.0000       565.0000       565.0000       565.0000    
   565.0000       565.0000       565.0000       565.0000       565.0000    
   565.0000       565.0000       565.0000       565.0000       565.0000    
   565.0000       565.0000       565.0000       565.0000       565.0000    
   565.0000       565.0000       565.0000       565.0000       565.0000    
   565.0000       565.0000       565.0000       565.0000       565.0000    
   565.0000       565.0000       565.0000       565.0000       565.0000    
   565.0000       565.0000       565.0000       565.0000       565.0000    
   565.0000       565.0000       565.0000       565.0000       565.0000    
   565.0000       565.0000       565.0000       565.0000       565.0000    
   565.0000       565.0000       565.0000       565.0000       565.0000    
   565.0000       565.0000       565.0000       565.0000       565.0000    
   565.0000       565.0000       565.0000       565.0000       565.0000    
   565.0000       565.0000       565.0000       565.0000       565.0000    
   565.0000       565.0000       565.0000       565.0000       565.0000    
   565.0000       565.0000       565.0000       565.0000       565.0000    
   565.0000       565.0000       565.0000       565.0000       565.0000    
   565.0000       565.0000       565.0000       565.0000       565.0000    
   565.0000       565.0000       565.0000       565.0000       565.0000    
   565.0000       565.0000       565.0000       565.0000       565.0000    
   565.0000       565.0000       565.0000       565.0000       565.0000    
   565.0000       565.0000       565.0000       565.0000       565.0000    
   565.0000       565.0000       565.0000       565.0000       565.0000    
   565.0000       565.0000       565.0000       565.0000       565.0000    
   565.0000       565.0000       565.0000       565.0000       565.0000    
   565.0000       565.0000       565.0000       565.0000       565.0000    
   565.0000       565.0000       565.0000       565.0000       565.0000    
   565.0000       565.0000       565.0000       565.0000       565.0000    
   565.0000       565.0000       565.0000       565.0000       565.0000    
   565.0000       565.0000       565.0000       565.0000       565.0000    
   565.0000       565.0000       565.0000       565.0000       565.0000    
   565.0000       565.0000       565.0000       565.0000       565.0000    
   565.0000       565.0000       565.0000       565.0000       565.0000    
   565.0000       565.0000       565.0000       565.0000       565.0000    
   565.0000       565.0000       565.0000       565.0000       565.0000    
   565.0000       565.0000       565.0000       565.0000       565.0000    
   565.0000       565.0000       565.0000       565.0000       565.0000    
   565.0000       565.0000       565.0000       565.0000       565.0000    
   565.0000       565.0000       565.0000       565.0000       565.0000    
   565.0000       565.0000       565.0000       565.0000       565.0000    
   565.0000       565.0000       565.0000       565.0000       565.0000    
   565.0000       565.0000       565.0000       565.0000       565.0000    
   565.0000       565.0000       565.0000       565.0000       565.0000    
   565.0000       565.0000       565.0000       565.0000       565.0000    
   565.0000       565.0000       565.0000       565.0000       565.0000    
   565.0000       565.0000       565.0000       565.0000       565.0000    
   565.0000       565.0000       565.0000       565.0000       565.0000    
   565.0000       565.0000       565.0000       565.0000       565.0000    
   565.0000       565.0000       565.0000       565.0000       565.0000    
   565.0000       565.0000       565.0000       565.0000       565.0000    
   565.0000       565.0000       565.0000       565.0000       565.0000    
   565.0000       565.0000       565.0000       565.0000       565.0000    
   565.0000       565.0000       565.0000       565.0000       565.0000    
   565.0000       565.0000       565.0000       565.0000       565.0000    
   565.0000       565.0000       565.0000       565.0000       565.0000    
   565.0000       565.0000       565.0000       565.0000       565.0000    
   565.0000       565.0000       565.0000       565.0000       565.0000    
   565.0000       565.0000       565.0000       565.0000       565.0000    
   565.0000       565.0000       565.0000       565.0000       565.0000    
   565.0000       565.0000       565.0000       565.0000       565.0000    
   565.0000       565.0000       565.0000       565.0000       565.0000    
   565.0000       565.0000       565.0000       565.0000       565.0000    
   565.0000       565.0000       565.0000       565.0000       565.0000    
   565.0000       565.0000       565.0000       565.0000       565.0000    
   565.0000       565.0000       565.0000       565.0000       565.0000    
   565.0000       565.0000       565.0000       565.0000       565.0000    
   565.0000       565.0000       565.0000       565.0000       565.0000    
   565.0000       565.0000       565.0000       565.0000       565.0000    
   565.0000       565.0000       565.0000       565.0000       565.0000    
   565.0000       565.0000       565.0000       565.0000       565.0000    
   565.0000       565.0000       565.0000       565.0000       565.0000    
   565.0000       565.0000       565.0000       565.0000       565.0000    
   565.0000       565.0000       565.0000       565.0000       565.0000    
   565.0000       565.0000       565.0000       565.0000       565.0000    
   565.0000       565.0000       565.0000       565.0000       565.0000    
   565.0000       565.0000       565.0000       565.0000       565.0000    
   565.0000       565.0000       565.0000       565.0000       565.0000    
   565.0000       565.0000       565.0000       565.0000       565.0000    
   565.0000       565.0000       565.0000       565.0000       565.0000    
   565.0000       565.0000       565.0000       565.0000       565.0000    
   565.0000       565.0000       565.0000       565.0000       565.0000    
   565.0000       565.0000       565.0000       565.0000       565.0000    
   565.0000       565.0000       565.0000       565.0000       565.0000    
   565.0000       565.0000       565.0000       565.0000       565.0000    
   565.0000       565.0000       565.0000       565.0000       565.0000    
   565.0000       565.0000       565.0000       565.0000       565.0000    
   565.0000       565.0000       565.0000       565.0000       565.0000    
   565.0000       565.0000       565.0000       565.0000       565.0000    
   565.0000       565.0000       565.0000       565.0000       565.0000    
   565.0000       565.0000       565.0000       565.0000       565.0000    
   565.0000       565.0000       565.0000       565.0000       565.0000    
   565.0000       565.0000       565.0000       565.0000       565.0000    
   565.0000       565.0000       565.0000       565.0000       565.0000    
   565.0000       565.0000       565.0000       565.0000       565.0000    
   565.0000       565.0000       565.0000       565.0000       565.0000    
   565.0000       565.0000       565.0000       565.0000       565.0000    
   565.0000       565.0000       565.0000       565.0000       565.0000    
   565.0000       565.0000       565.0000       565.0000       565.0000    
   565.0000       565.0000       565.0000       565.0000       565.0000    
   565.0000       565.0000       565.0000       565.0000       565.0000    
   565.0000       565.0000       565.0000       565.0000       565.0000    
   565.0000       565.0000       565.0000       565.0000       565.0000    
   565.0000       565.0000       565.0000       565.0000       565.0000    
   565.0000       565.0000       565.0000       565.0000       565.0000    
   565.0000       565.0000       565.0000       565.0000       565.0000    
   565.0000       565.0000       565.0000       565.0000       565.0000    
   565.0000       565.0000       565.0000       565.0000       565.0000    
   565.0000       565.0000       565.0000       565.0000       565.0000    
   565.0000       565.0000       565.0000       565.0000       565.0000    
   565.0000       565.0000       565.0000       565.0000       565.0000    
   565.0000       565.0000       565.0000       565.0000       565.0000    
   565.0000       565.0000       565.0000       565.0000       565.0000    
   565.0000       565.0000       565.0000       565.0000       565.0000    
   565.0000       565.0000       565.0000       565.0000       565.0000    
   565.0000       565.0000       565.0000       565.0000       565.0000    
   565.0000       565.0000       565.0000       565.0000       565.0000    
   565.0000       565.0000       565.0000       565.0000       565.0000    
   565.0000       565.0000       565.0000       565.0000       565.0000    
   565.0000       565.0000       565.0000       565.0000       565.0000    
   565.0000       565.0000       565.0000       565.0000       565.0000    
   565.0000       565.0000       565.0000       565.0000       565.0000    
   565.0000       565.0000       565.0000       565.0000       565.0000    
   565.0000       565.0000       565.0000       565.0000       565.0000    
   565.0000       565.0000       565.0000       565.0000       565.0000    
   565.0000       565.0000       565.0000       565.0000       565.0000    
   565.0000       565.0000       565.0000       565.0000       565.0000    
   565.0000       565.0000       565.0000       565.0000       565.0000    
   565.0000       565.0000       565.0000       565.0000       565.0000    
   565.0000       565.0000       565.0000       565.0000       565.0000    
   565.0000       565.0000       565.0000       565.0000       565.0000    
   565.0000       565.0000       565.0000       565.0000       565.0000    
   565.0000       565.0000       565.0000       565.0000       565.0000    
   565.0000       565.0000       565.0000       565.0000       565.0000    
   565.0000       565.0000       565.0000       565.0000       565.0000    
   565.0000       565.0000       565.0000       565.0000       565.0000    
   565.0000       565.0000       565.0000       565.0000       565.0000    
   565.0000       565.0000       565.0000       565.0000       565.0000    
   565.0000       565.0000       565.0000       565.0000       565.0000    
   565.0000       565.0000       565.0000       565.0000       565.0000    
   565.0000       565.0000       565.0000       565.0000       565.0000    
   565.0000       565.0000       565.0000       565.0000       565.0000    
   565.0000       565.0000       565.0000       565.0000       565.0000    
   565.0000       565.0000       565.0000       565.0000       565.0000    
   565.0000       565.0000       565.0000       565.0000       565.0000    
   565.0000       565.0000       565.0000       565.0000       565.0000    
   565.0000       565.0000       565.0000       565.0000       565.0000    
   565.0000       565.0000       565.0000       565.0000       565.0000    
   565.0000       565.0000       565.0000       565.0000       565.0000    
   565.0000       565.0000       565.0000       565.0000       565.0000    
   565.0000       565.0000       565.0000       565.0000       565.0000    
   565.0000       565.0000       565.0000       565.0000       565.0000    
   565.0000       565.0000       565.0000       565.0000       565.0000    
   565.0000       565.0000       565.0000       565.0000       565.0000    
   565.0000       565.0000       565.0000       565.0000       565.0000    
   565.0000       565.0000       565.0000       565.0000       565.0000    
   565.0000       565.0000       565.0000       565.0000       565.0000    
   565.0000       565.0000       565.0000       565.0000       565.0000    
   565.0000       565.0000       565.0000       565.0000       565.0000    
   565.0000       565.0000       565.0000       565.0000       565.0000    
   565.0000       565.0000       565.0000       565.0000       565.0000    
   565.0000       565.0000       565.0000       565.0000       565.0000    
   565.0000       565.0000       565.0000       565.0000       565.0000    
   565.0000       565.0000       565.0000       565.0000       565.0000    
   565.0000       565.0000       565.0000       565.0000       565.0000    
   565.0000       565.0000       565.0000       565.0000       565.0000    
   565.0000       565.0000       565.0000       565.0000       565.0000    
   565.0000       565.0000       565.0000       565.0000       565.0000    
   565.0000       565.0000       565.0000       565.0000       565.0000    
   565.0000       565.0000       565.0000       565.0000       565.0000    
   565.0000       565.0000       565.0000       565.0000       565.0000    
   565.0000       565.0000       565.0000       565.0000       565.0000    
   565.0000       565.0000       565.0000       565.0000       565.0000    
   565.0000       565.0000       565.0000       565.0000       565.0000    
   565.0000       565.0000       565.0000       565.0000       565.0000    
   565.0000       565.0000       565.0000       565.0000       565.0000    
   565.0000       565.0000       565.0000       565.0000       565.0000    
   565.0000       565.0000       565.0000       565.0000       565.0000    
   565.0000       565.0000       565.0000       565.0000       565.0000    
   565.0000       565.0000       565.0000       565.0000       565.0000    
   565.0000       565.0000       565.0000       565.0000       565.0000    
   565.0000       565.0000       565.0000       565.0000       565.0000    
   565.0000       565.0000       565.0000       565.0000       565.0000    
   565.0000       565.0000       565.0000       565.0000       565.0000    
   565.0000       565.0000       565.0000       565.0000       565.0000    
   565.0000       565.0000       565.0000       565.0000       565.0000    
   565.0000       565.0000       565.0000       565.0000       565.0000    
   565.0000       565.0000       565.0000       565.0000       565.0000    
   565.0000       565.0000       565.0000       565.0000       565.0000    
   565.0000       565.0000       565.0000       565.0000       565.0000    
   565.0000       565.0000       565.0000       565.0000       565.0000    
   565.0000       565.0000       565.0000       565.0000       565.0000    
   565.0000       565.0000       565.0000       565.0000       565.0000    
   565.0000       565.0000       565.0000       565.0000       565.0000    
   565.0000       565.0000       565.0000       565.0000       565.0000    
   565.0000       565.0000       565.0000       565.0000       565.0000    
   565.0000       565.0000       565.0000       565.0000       565.0000    
   565.0000       565.0000       565.0000       565.0000       565.0000    
   565.0000       565.0000       565.0000       565.0000       565.0000    
   565.0000       565.0000       565.0000       565.0000       565.0000    
   565.0000       565.0000       565.0000       565.0000       565.0000    
   565.0000       565.0000       565.0000       565.0000       565.0000    
   565.0000       565.0000       565.0000       565.0000       565.0000    
   565.0000       565.0000       565.0000       565.0000       565.0000    
   565.0000       565.0000       565.0000       565.0000       565.0000    
   565.0000       565.0000       565.0000       565.0000       565.0000    
   565.0000       565.0000       565.0000       565.0000       565.0000    
   565.0000       565.0000       565.0000       565.0000       565.0000    
   565.0000       565.0000       565.0000       565.0000       565.0000    
   565.0000       565.0000       565.0000       565.0000       565.0000    
   565.0000       565.0000       565.0000       565.0000       565.0000    
   565.0000       565.0000       565.0000       565.0000       565.0000    
   565.0000       565.0000       565.0000       565.0000       565.0000    
   565.0000       565.0000       565.0000       565.0000       565.0000    
   565.0000       565.0000       565.0000       565.0000       565.0000    
   565.0000       565.0000       565.0000       565.0000       565.0000    
   565.0000       565.0000       565.0000       565.0000       565.0000    
   565.0000       565.0000       565.0000       565.0000       565.0000    
   565.0000       565.0000       565.0000       565.0000       565.0000    
   565.0000       565.0000       565.0000       565.0000       565.0000    
   565.0000       565.0000       565.0000       565.0000       565.0000    
   565.0000       565.0000       565.0000       565.0000       565.0000    
   565.0000       565.0000       565.0000       565.0000       565.0000    
   565.0000       565.0000       565.0000       565.0000       565.0000    
   565.0000       565.0000       565.0000       565.0000       565.0000    
   565.0000       565.0000       565.0000       565.0000       565.0000    
   565.0000       565.0000       565.0000       565.0000       565.0000    
   565.0000       565.0000       565.0000       565.0000       565.0000    
   565.0000       565.0000       565.0000       565.0000       565.0000    
   565.0000       565.0000       565.0000       565.0000       565.0000    
   565.0000       565.0000       565.0000       565.0000       565.0000    
   565.0000       565.0000       565.0000       565.0000       565.0000    
   565.0000       565.0000       565.0000       565.0000       565.0000    
   565.0000       565.0000       565.0000       565.0000       565.0000    
   565.0000       565.0000       565.0000       565.0000       565.0000    
   565.0000       565.0000       565.0000       565.0000       565.0000    
   565.0000       565.0000       565.0000       565.0000       565.0000    
   565.0000       565.0000       565.0000       565.0000       565.0000    
   565.0000       565.0000       565.0000       565.0000       565.0000    
   565.0000       565.0000       565.0000       565.0000       565.0000    
   565.0000       565.0000       565.0000       565.0000       565.0000    
   565.0000       565.0000       565.0000       565.0000       565.0000    
   565.0000       565.0000       565.0000       565.0000       565.0000    
   565.0000       565.0000       565.0000       565.0000       565.0000    
   565.0000       565.0000       565.0000       565.0000       565.0000    
   565.0000       565.0000       565.0000       565.0000       565.0000    
   565.0000       565.0000       565.0000       565.0000       565.0000    
   565.0000       565.0000       565.0000       565.0000       565.0000    
   565.0000       565.0000       565.0000       565.0000       565.0000    
   565.0000       565.0000       565.0000       565.0000       565.0000    
   565.0000       565.0000       565.0000       565.0000       565.0000    
   565.0000       565.0000       565.0000       565.0000       565.0000    
   565.0000       565.0000       565.0000       565.0000       565.0000    
   565.0000       565.0000       565.0000       565.0000       565.0000    
   565.0000       565.0000       565.0000       565.0000       565.0000    
   565.0000       565.0000       565.0000       565.0000       565.0000    
   565.0000       565.0000       565.0000       565.0000       565.0000    
   565.0000       565.0000       565.0000       565.0000       565.0000    
   565.0000       565.0000       565.0000       565.0000       565.0000    
   565.0000       565.0000       565.0000       565.0000       565.0000    
   565.0000       565.0000       565.0000       565.0000       565.0000    
   565.0000       565.0000       565.0000       565.0000       565.0000    
   565.0000       565.0000       565.0000       565.0000       565.0000    
   565.0000       565.0000       565.0000       565.0000       565.0000    
   565.0000       565.0000       565.0000       565.0000       565.0000    
   565.0000       565.0000       565.0000       565.0000       565.0000    
   565.0000       565.0000       565.0000       565.0000       565.0000    
   565.0000       565.0000       565.0000       565.0000       565.0000    
   565.0000       565.0000       565.0000       565.0000       565.0000    
   565.0000       565.0000       565.0000       565.0000       565.0000    
   565.0000       565.0000       565.0000       565.0000       565.0000    
   565.0000       565.0000       565.0000       565.0000       565.0000    
   565.0000       565.0000       565.0000       565.0000       565.0000    
   565.0000       565.0000       565.0000       565.0000       565.0000    
   565.0000       565.0000       565.0000       565.0000       565.0000    
   565.0000       565.0000       565.0000       565.0000       565.0000    
   565.0000       565.0000       565.0000       565.0000       565.0000    
   565.0000       565.0000       565.0000       565.0000       565.0000    
   565.0000       565.0000       565.0000       565.0000       565.0000    
   565.0000       565.0000       565.0000       565.0000       565.0000    
   565.0000       565.0000       565.0000       565.0000       565.0000    
   565.0000       565.0000       565.0000       565.0000       565.0000    
   565.0000       565.0000       565.0000       565.0000       565.0000    
   565.0000       565.0000       565.0000       565.0000       565.0000    
   565.0000       565.0000       565.0000       565.0000       565.0000    
   565.0000       565.0000       565.0000       565.0000       565.0000    
   565.0000       565.0000       565.0000       565.0000       565.0000    
   565.0000       565.0000       565.0000       565.0000       565.0000    
   565.0000       565.0000       565.0000       565.0000       565.0000    
   565.0000       565.0000       565.0000       565.0000       565.0000    
   565.0000       565.0000       565.0000       565.0000       565.0000    
   565.0000       565.0000       565.0000       565.0000       565.0000    
   565.0000       565.0000       565.0000       565.0000       565.0000    
   565.0000       565.0000       565.0000       565.0000       565.0000    
   565.0000       565.0000       565.0000       565.0000       565.0000    
   565.0000       565.0000       565.0000       565.0000       565.0000    
   565.0000       565.0000       565.0000       565.0000       565.0000    
   565.0000       565.0000       565.0000       565.0000       565.0000    
   565.0000       565.0000       565.0000       565.0000       565.0000    
   565.0000       565.0000       565.0000       565.0000       565.0000    
   565.0000       565.0000       565.0000       565.0000       565.0000    
   565.0000       565.0000       565.0000       565.0000       565.0000    
   565.0000       565.0000       565.0000       565.0000       565.0000    
   565.0000       565.0000       565.0000       565.0000       565.0000    
   565.0000       565.0000       565.0000       565.0000       565.0000    
   565.0000       565.0000       565.0000       565.0000       565.0000    
   565.0000       565.0000       565.0000       565.0000       565.0000    
   565.0000       565.0000       565.0000       565.0000       565.0000    
   565.0000       565.0000       565.0000       565.0000       565.0000    
   565.0000       565.0000       565.0000       565.0000       565.0000    
   565.0000       565.0000       565.0000       565.0000       565.0000    
   565.0000       565.0000       565.0000       565.0000       565.0000    
   565.0000       565.0000       565.0000       565.0000       565.0000    
   565.0000       565.0000       565.0000       565.0000       565.0000    
   565.0000       565.0000       565.0000       565.0000       565.0000    
   565.0000       565.0000       565.0000       565.0000       565.0000    
   565.0000       565.0000       565.0000       565.0000       565.0000    
   565.0000       565.0000       565.0000       565.0000       565.0000    
   565.0000       565.0000       565.0000       565.0000       565.0000    
   565.0000       565.0000       565.0000       565.0000       565.0000    
   565.0000       565.0000       565.0000       565.0000       565.0000    
   565.0000       565.0000       565.0000       565.0000       565.0000    
   565.0000       565.0000       565.0000       565.0000       565.0000    
   565.0000       565.0000       565.0000       565.0000       565.0000    
   565.0000       565.0000       565.0000       565.0000       565.0000    
   565.0000       565.0000       565.0000       565.0000       565.0000    
   565.0000       565.0000       565.0000       565.0000       565.0000    
   565.0000       565.0000       565.0000       565.0000       565.0000    
   565.0000       565.0000       565.0000       565.0000       565.0000    
   565.0000       565.0000       565.0000       565.0000       565.0000    
   565.0000       565.0000       565.0000       565.0000       565.0000    
   565.0000       565.0000       565.0000       565.0000       565.0000    
   565.0000       565.0000       565.0000       565.0000       565.0000    
   565.0000       565.0000       565.0000       565.0000       565.0000    
   565.0000       565.0000       565.0000       565.0000       565.0000    
   565.0000       565.0000       565.0000       565.0000       565.0000    
   565.0000       565.0000       565.0000       565.0000       565.0000    
   565.0000       565.0000       565.0000       565.0000       565.0000    
   565.0000       565.0000       565.0000       565.0000       565.0000    
   565.0000       565.0000       565.0000       565.0000       565.0000    
   565.0000       565.0000       565.0000       565.0000       565.0000    
   565.0000       565.0000       565.0000       565.0000       565.0000    
   565.0000       565.0000       565.0000       565.0000       565.0000    
   565.0000       565.0000       565.0000       565.0000       565.0000    
   565.0000       565.0000       565.0000       565.0000       565.0000    
   565.0000       565.0000       565.0000       565.0000       565.0000    
   565.0000       565.0000       565.0000       565.0000       565.0000    
   565.0000       565.0000       565.0000       565.0000       565.0000    
   565.0000       565.0000       565.0000       565.0000       565.0000    
   565.0000       565.0000       565.0000       565.0000       565.0000    
   565.0000       565.0000       565.0000       565.0000       565.0000    
   565.0000       565.0000       565.0000       565.0000       565.0000    
   565.0000       565.0000       565.0000       565.0000       565.0000    
   565.0000       565.0000       565.0000       565.0000       565.0000    
   565.0000       565.0000       565.0000       565.0000       565.0000    
   565.0000       565.0000       565.0000       565.0000       565.0000    
   565.0000       565.0000       565.0000       565.0000       565.0000    
   565.0000       565.0000       565.0000       565.0000       565.0000    
   565.0000       565.0000       565.0000       565.0000       565.0000    
   565.0000       565.0000       565.0000       565.0000       565.0000    
   565.0000       565.0000       565.0000       565.0000       565.0000    
   565.0000       565.0000       565.0000       565.0000       565.0000    
   565.0000       565.0000       565.0000       565.0000       565.0000    
   565.0000       565.0000       565.0000       565.0000       565.0000    
   565.0000       565.0000       565.0000       565.0000       565.0000    
   565.0000       565.0000       565.0000       565.0000       565.0000    
   565.0000       565.0000       565.0000       565.0000       565.0000    
   565.0000       565.0000       565.0000       565.0000       565.0000    
   565.0000       565.0000       565.0000       565.0000       565.0000    
   565.0000       565.0000       565.0000       565.0000       565.0000    
   565.0000       565.0000       565.0000       565.0000       565.0000    
   565.0000       565.0000       565.0000       565.0000       565.0000    
   565.0000       565.0000       565.0000       565.0000       565.0000    
   565.0000       565.0000       565.0000       565.0000       565.0000    
   565.0000       565.0000       565.0000       565.0000       565.0000    
   565.0000       565.0000       565.0000       565.0000       565.0000    
   565.0000       565.0000       565.0000       565.0000       565.0000    
   565.0000       565.0000       565.0000       565.0000       565.0000    
   565.0000       565.0000       565.0000       565.0000       565.0000    
   565.0000       565.0000       565.0000       565.0000       565.0000    
   565.0000       565.0000       565.0000       565.0000       565.0000    
   565.0000       565.0000       565.0000       565.0000       565.0000    
   565.0000       565.0000       565.0000       565.0000       565.0000    
   565.0000       565.0000       565.0000       565.0000       565.0000    
   565.0000       565.0000       565.0000       565.0000       565.0000    
   565.0000       565.0000       565.0000       565.0000       565.0000    
   565.0000       565.0000       565.0000       565.0000       565.0000    
   565.0000       565.0000       565.0000       565.0000       565.0000    
   565.0000       565.0000       565.0000       565.0000       565.0000    
   565.0000       565.0000       565.0000       565.0000       565.0000    
   565.0000       565.0000       565.0000       565.0000       565.0000    
   565.0000       565.0000       565.0000       565.0000       565.0000    
   565.0000       565.0000       565.0000       565.0000       565.0000    
   565.0000       565.0000       565.0000       565.0000       565.0000    
   565.0000       565.0000       565.0000       565.0000       565.0000    
   565.0000       565.0000       565.0000       565.0000       565.0000    
   565.0000       565.0000       565.0000       565.0000       565.0000    
   565.0000       565.0000       565.0000       565.0000       565.0000    
   565.0000       565.0000       565.0000       565.0000       565.0000    
   565.0000       565.0000       565.0000       565.0000       565.0000    
   565.0000       565.0000       565.0000       565.0000       565.0000    
   565.0000       565.0000       565.0000       565.0000       565.0000    
   565.0000       565.0000       565.0000       565.0000       565.0000    
   565.0000       565.0000       565.0000       565.0000       565.0000    
   565.0000       565.0000       565.0000       565.0000       565.0000    
   565.0000       565.0000       565.0000       565.0000       565.0000    
   565.0000       565.0000       565.0000       565.0000       565.0000    
   565.0000       565.0000       565.0000       565.0000       565.0000    
   565.0000       565.0000       565.0000       565.0000       565.0000    
   565.0000       565.0000       565.0000       565.0000       565.0000    
   565.0000       565.0000       565.0000       565.0000       565.0000    
   565.0000       565.0000       565.0000       565.0000       565.0000    
   565.0000       565.0000       565.0000       565.0000       565.0000    
   565.0000       565.0000       565.0000       565.0000       565.0000    
   565.0000       565.0000       565.0000       565.0000       565.0000    
   565.0000       565.0000       565.0000       565.0000       565.0000    
   565.0000       565.0000       565.0000       565.0000       565.0000    
   565.0000       565.0000       565.0000       565.0000       565.0000    
   565.0000       565.0000       565.0000       565.0000       565.0000    
   565.0000       565.0000       565.0000       565.0000       565.0000    
   565.0000       565.0000       565.0000       565.0000       565.0000    
   565.0000       565.0000       565.0000       565.0000       565.0000    
   565.0000       565.0000       565.0000       565.0000       565.0000    
   565.0000       565.0000       565.0000       565.0000       565.0000    
   565.0000       565.0000       565.0000       565.0000       565.0000    
   565.0000       565.0000       565.0000       565.0000       565.0000    
   565.0000       565.0000       565.0000       565.0000       565.0000    
   565.0000       565.0000       565.0000       565.0000       565.0000    
   565.0000       565.0000       565.0000       565.0000       565.0000    
   565.0000       565.0000       565.0000       565.0000       565.0000    
   565.0000       565.0000       565.0000       565.0000       565.0000    
   565.0000       565.0000       565.0000       565.0000       565.0000    
   565.0000       565.0000       565.0000       565.0000       565.0000    
   565.0000       565.0000       565.0000       565.0000       565.0000    
   565.0000       565.0000       565.0000       565.0000       565.0000    
   565.0000       565.0000       565.0000       565.0000       565.0000    
   565.0000       565.0000       565.0000       565.0000       565.0000    
   565.0000       565.0000       565.0000       565.0000       565.0000    
   565.0000       565.0000       565.0000       565.0000       565.0000    
   565.0000       565.0000       565.0000       565.0000       565.0000    
   565.0000       565.0000       565.0000       565.0000       565.0000    
   565.0000       565.0000       565.0000       565.0000       565.0000    
   565.0000       565.0000       565.0000       565.0000       565.0000    
   565.0000       565.0000       565.0000       565.0000       565.0000    
   565.0000       565.0000       565.0000       565.0000       565.0000    
   565.0000       565.0000       565.0000       565.0000       565.0000    
   565.0000       565.0000       565.0000       565.0000       565.0000    
   565.0000       565.0000       565.0000       565.0000       565.0000    
   565.0000       565.0000       565.0000       565.0000       565.0000    
   565.0000       565.0000       565.0000       565.0000       565.0000    
   565.0000       565.0000       565.0000       565.0000       565.0000    
   565.0000       565.0000       565.0000       565.0000       565.0000    
   565.0000       565.0000       565.0000       565.0000       565.0000    
   565.0000       565.0000       565.0000       565.0000       565.0000    
   565.0000       565.0000       565.0000       565.0000       565.0000    
   565.0000       565.0000       565.0000       565.0000       565.0000    
   565.0000       565.0000       565.0000       565.0000       565.0000    
   565.0000       565.0000       565.0000       565.0000       565.0000    
   565.0000       565.0000       565.0000       565.0000       565.0000    
   565.0000       565.0000       565.0000       565.0000       565.0000    
   565.0000       565.0000       565.0000       565.0000       565.0000    
   565.0000       565.0000       565.0000       565.0000       565.0000    
   565.0000       565.0000       565.0000       565.0000       565.0000    
   565.0000       565.0000       565.0000       565.0000       565.0000    
   565.0000       565.0000       565.0000       565.0000       565.0000    
   565.0000       565.0000       565.0000       565.0000       565.0000    
   565.0000       565.0000       565.0000       565.0000       565.0000    
   565.0000       565.0000       565.0000       565.0000       565.0000    
   565.0000       565.0000       565.0000       565.0000       565.0000    
   565.0000       565.0000       565.0000       565.0000       565.0000    
   565.0000       565.0000       565.0000       565.0000       565.0000    
   565.0000       565.0000       565.0000       565.0000       565.0000    
   565.0000       565.0000       565.0000       565.0000       565.0000    
   565.0000       565.0000       565.0000       565.0000       565.0000    
   565.0000       565.0000       565.0000       565.0000       565.0000    
   565.0000       565.0000       565.0000       565.0000       565.0000    
   565.0000       565.0000       565.0000       565.0000       565.0000    
   565.0000       565.0000       565.0000       565.0000       565.0000    
   565.0000       565.0000       565.0000       565.0000       565.0000    
   565.0000       565.0000       565.0000       565.0000       565.0000    
   565.0000       565.0000       565.0000       565.0000       565.0000    
   565.0000       565.0000       565.0000       565.0000       565.0000    
   565.0000       565.0000       565.0000       565.0000       565.0000    
   565.0000       565.0000       565.0000       565.0000       565.0000    
   565.0000       565.0000       565.0000       565.0000       565.0000    
   565.0000       565.0000       565.0000       565.0000       565.0000    
   565.0000       565.0000       565.0000       565.0000       565.0000    
   565.0000       565.0000       565.0000       565.0000       565.0000    
   565.0000       565.0000       565.0000       565.0000       565.0000    
   565.0000       565.0000       565.0000       565.0000       565.0000    
   565.0000       565.0000       565.0000       565.0000       565.0000    
   565.0000       565.0000       565.0000       565.0000       565.0000    
   565.0000       565.0000       565.0000       565.0000       565.0000    
   565.0000       565.0000       565.0000       565.0000       565.0000    
   565.0000       565.0000       565.0000       565.0000       565.0000    
   565.0000       565.0000       565.0000       565.0000       565.0000    
   565.0000       565.0000       565.0000       565.0000       565.0000    
   565.0000       565.0000       565.0000       565.0000       565.0000    
   565.0000       565.0000       565.0000       565.0000       565.0000    
   565.0000       565.0000       565.0000       565.0000       565.0000    
   565.0000       565.0000       565.0000       565.0000       565.0000    
   565.0000       565.0000       565.0000       565.0000       565.0000    
   565.0000       565.0000       565.0000       565.0000       565.0000    
   565.0000       565.0000       565.0000       565.0000       565.0000    
   565.0000       565.0000       565.0000       565.0000       565.0000    
   565.0000       565.0000       565.0000       565.0000       565.0000    
   565.0000       565.0000       565.0000       565.0000       565.0000    
   565.0000       565.0000       565.0000       565.0000       565.0000    
   565.0000       565.0000       565.0000       565.0000       565.0000    
   565.0000       565.0000       565.0000       565.0000       565.0000    
   565.0000       565.0000       565.0000       565.0000       565.0000    
   565.0000       565.0000       565.0000       565.0000       565.0000    
   565.0000       565.0000       565.0000       565.0000       565.0000    
   565.0000       565.0000       565.0000       565.0000       565.0000    
   565.0000       565.0000       565.0000       565.0000       565.0000    
   565.0000       565.0000       565.0000       565.0000       565.0000    
   565.0000       565.0000       565.0000       565.0000       565.0000    
   565.0000       565.0000       565.0000       565.0000       565.0000    
   565.0000       565.0000       565.0000       565.0000       565.0000    
   565.0000       565.0000       565.0000       565.0000       565.0000    
   565.0000       565.0000       565.0000       565.0000       565.0000    
   565.0000       565.0000       565.0000       565.0000       565.0000    
   565.0000       565.0000       565.0000       565.0000       565.0000    
   565.0000       565.0000       565.0000       565.0000       565.0000    
   565.0000       565.0000       565.0000       565.0000       565.0000    
   565.0000       565.0000       565.0000       565.0000       565.0000    
   565.0000       565.0000       565.0000       565.0000       565.0000    
   565.0000       565.0000       565.0000       565.0000       565.0000    
   565.0000       565.0000       565.0000       565.0000       565.0000    
   565.0000       565.0000       565.0000       565.0000       565.0000    
   565.0000       565.0000       565.0000       565.0000       565.0000    
   565.0000       565.0000       565.0000       565.0000       565.0000    
   565.0000       565.0000       565.0000       565.0000       565.0000    
   565.0000       565.0000       565.0000       565.0000       565.0000    
   565.0000       565.0000       565.0000       565.0000       565.0000    
   565.0000       565.0000       565.0000       565.0000       565.0000    
   565.0000       565.0000       565.0000       565.0000       565.0000    
   565.0000       565.0000       565.0000       565.0000       565.0000    
   565.0000       565.0000       565.0000       565.0000       565.0000    
   565.0000       565.0000       565.0000       565.0000       565.0000    
   565.0000       565.0000       565.0000       565.0000       565.0000    
   565.0000       565.0000       565.0000       565.0000       565.0000    
   565.0000       565.0000       565.0000       565.0000       565.0000    
   565.0000       565.0000       565.0000       565.0000       565.0000    
   565.0000       565.0000       565.0000       565.0000       565.0000    
   565.0000       565.0000       565.0000       565.0000       565.0000    
   565.0000       565.0000       565.0000       565.0000       565.0000    
   565.0000       565.0000       565.0000       565.0000       565.0000    
   565.0000       565.0000       565.0000       565.0000       565.0000    
   565.0000       565.0000       565.0000       565.0000       565.0000    
   565.0000       565.0000       565.0000       565.0000       565.0000    
   565.0000       565.0000       565.0000       565.0000       565.0000    
   565.0000       565.0000       565.0000       565.0000       565.0000    
   565.0000       565.0000       565.0000       565.0000       565.0000    
   565.0000       565.0000       565.0000       565.0000       565.0000    
   565.0000       565.0000       565.0000       565.0000       565.0000    
   565.0000       565.0000       565.0000       565.0000       565.0000    
   565.0000       565.0000       565.0000       565.0000       565.0000    
   565.0000       565.0000       565.0000       565.0000       565.0000    
   565.0000       565.0000       565.0000       565.0000       565.0000    
   565.0000       565.0000       565.0000       565.0000       565.0000    
   565.0000       565.0000       565.0000       565.0000       565.0000    
   565.0000       565.0000       565.0000       565.0000       565.0000    
   565.0000       565.0000       565.0000       565.0000       565.0000    
   565.0000       565.0000       565.0000       565.0000       565.0000    
   565.0000       565.0000       565.0000       565.0000       565.0000    
   565.0000       565.0000       565.0000       565.0000       565.0000    
   565.0000       565.0000       565.0000       565.0000       565.0000    
   565.0000       565.0000       565.0000       565.0000       565.0000    
   565.0000       565.0000       565.0000       565.0000       565.0000    
   565.0000       565.0000       565.0000       565.0000       565.0000    
   565.0000       565.0000       565.0000       565.0000       565.0000    
   565.0000       565.0000       565.0000       565.0000       565.0000    
   565.0000       565.0000       565.0000       565.0000       565.0000    
   565.0000       565.0000       565.0000       565.0000       565.0000    
   565.0000       565.0000       565.0000       565.0000       565.0000    
   565.0000       565.0000       565.0000       565.0000       565.0000    
   565.0000       565.0000       565.0000       565.0000       565.0000    
   565.0000       565.0000       565.0000       565.0000       565.0000    
   565.0000       565.0000       565.0000       565.0000       565.0000    
   565.0000       565.0000       565.0000       565.0000       565.0000    
   565.0000       565.0000       565.0000       565.0000       565.0000    
   565.0000       565.0000       565.0000       565.0000       565.0000    
   565.0000       565.0000       565.0000       565.0000       565.0000    
   565.0000       565.0000       565.0000       565.0000       565.0000    
   565.0000       565.0000       565.0000       565.0000       565.0000    
   565.0000       565.0000       565.0000       565.0000       565.0000    
   565.0000       565.0000       565.0000       565.0000       565.0000    
   565.0000       565.0000       565.0000       565.0000       565.0000    
   565.0000       565.0000       565.0000       565.0000       565.0000    
   565.0000       565.0000       565.0000       565.0000       565.0000    
   565.0000       565.0000       565.0000       565.0000       565.0000    
   565.0000       565.0000       565.0000       565.0000       565.0000    
   565.0000       565.0000       565.0000       565.0000       565.0000    
   565.0000       565.0000       565.0000       565.0000       565.0000    
   565.0000       565.0000       565.0000       565.0000       565.0000    
   565.0000       565.0000       565.0000       565.0000       565.0000    
   565.0000       565.0000       565.0000       565.0000       565.0000    
   565.0000       565.0000       565.0000       565.0000       565.0000    
   565.0000       565.0000       565.0000       565.0000       565.0000    
   565.0000       565.0000       565.0000       565.0000       565.0000    
   565.0000       565.0000       565.0000       565.0000       565.0000    
   565.0000       565.0000       565.0000       565.0000       565.0000    
   565.0000       565.0000       565.0000       565.0000       565.0000    
   565.0000       565.0000       565.0000       565.0000       565.0000    
   565.0000       565.0000       565.0000       565.0000       565.0000    
   565.0000       565.0000       565.0000       565.0000       565.0000    
   565.0000       565.0000       565.0000       565.0000       565.0000    
   565.0000       565.0000       565.0000       565.0000       565.0000    
   565.0000       565.0000       565.0000       565.0000       565.0000    
   565.0000       565.0000       565.0000       565.0000       565.0000    
   565.0000       565.0000       565.0000       565.0000       565.0000    
   565.0000       565.0000       565.0000       565.0000       565.0000    
   565.0000       565.0000       565.0000       565.0000       565.0000    
   565.0000       565.0000       565.0000       565.0000       565.0000    
   565.0000       565.0000       565.0000       565.0000       565.0000    
   565.0000       565.0000       565.0000       565.0000       565.0000    
   565.0000       565.0000       565.0000       565.0000       565.0000    
   565.0000       565.0000       565.0000       565.0000       565.0000    
   565.0000       565.0000       565.0000       565.0000       565.0000    
   565.0000       565.0000       565.0000       565.0000       565.0000    
   565.0000       565.0000       565.0000       565.0000       565.0000    
   565.0000       565.0000       565.0000       565.0000       565.0000    
   565.0000       565.0000       565.0000       565.0000       565.0000    
   565.0000       565.0000       565.0000       565.0000       565.0000    
   565.0000       565.0000       565.0000       565.0000       565.0000    
   565.0000       565.0000       565.0000       565.0000       565.0000    
   565.0000       565.0000       565.0000       565.0000       565.0000    
   565.0000       565.0000       565.0000       565.0000       565.0000    
   565.0000       565.0000       565.0000       565.0000       565.0000    
   565.0000       565.0000       565.0000       565.0000       565.0000    
   565.0000       565.0000       565.0000       565.0000       565.0000    
   565.0000       565.0000       565.0000       565.0000       565.0000    
   565.0000       565.0000       565.0000       565.0000       565.0000    
   565.0000       565.0000       565.0000       565.0000       565.0000    
   565.0000       565.0000       565.0000       565.0000       565.0000    
   565.0000       565.0000       565.0000       565.0000       565.0000    
   565.0000       565.0000       565.0000       565.0000       565.0000    
   565.0000       565.0000       565.0000       565.0000       565.0000    
   565.0000       565.0000       565.0000       565.0000       565.0000    
   565.0000       565.0000       565.0000       565.0000       565.0000    
   565.0000       565.0000       565.0000       565.0000       565.0000    
   565.0000       565.0000       565.0000       565.0000       565.0000    
   565.0000       565.0000       565.0000       565.0000       565.0000    
   565.0000       565.0000       565.0000       565.0000       565.0000    
   565.0000       565.0000       565.0000       565.0000       565.0000    
   565.0000       565.0000       565.0000       565.0000       565.0000    
   565.0000       565.0000       565.0000       565.0000       565.0000    
   565.0000       565.0000       565.0000       565.0000       565.0000    
   565.0000       565.0000       565.0000       565.0000       565.0000    
   565.0000       565.0000       565.0000       565.0000       565.0000    
   565.0000       565.0000       565.0000       565.0000       565.0000    
   565.0000       565.0000       565.0000       565.0000       565.0000    
   565.0000       565.0000       565.0000       565.0000       565.0000    
   565.0000       565.0000       565.0000       565.0000       565.0000    
   565.0000       565.0000       565.0000       565.0000       565.0000    
   565.0000       565.0000       565.0000       565.0000       565.0000    
   565.0000       565.0000       565.0000       565.0000       565.0000    
   565.0000       565.0000       565.0000       565.0000       565.0000    
   565.0000       565.0000       565.0000       565.0000       565.0000    
   565.0000       565.0000       565.0000       565.0000       565.0000    
   565.0000       565.0000       565.0000       565.0000       565.0000    
   565.0000       565.0000       565.0000       565.0000       565.0000    
   565.0000       565.0000       565.0000       565.0000       565.0000    
   565.0000       565.0000       565.0000       565.0000       565.0000    
   565.0000       565.0000       565.0000       565.0000       565.0000    
   565.0000       565.0000       565.0000       565.0000       565.0000    
   565.0000       565.0000       565.0000       565.0000       565.0000    
   565.0000       565.0000       565.0000       565.0000       565.0000    
   565.0000       565.0000       565.0000       565.0000       565.0000    
   565.0000       565.0000       565.0000       565.0000       565.0000    
   565.0000       565.0000       565.0000       565.0000       565.0000    
   565.0000       565.0000       565.0000       565.0000       565.0000    
   565.0000       565.0000       565.0000       565.0000       565.0000    
   565.0000       565.0000       565.0000       565.0000       565.0000    
   565.0000       565.0000       565.0000       565.0000       565.0000    
   565.0000       565.0000       565.0000       565.0000       565.0000    
   565.0000       565.0000       565.0000       565.0000       565.0000    
   565.0000       565.0000       565.0000       565.0000       565.0000    
   565.0000       565.0000       565.0000       565.0000       565.0000    
   565.0000       565.0000       565.0000       565.0000       565.0000    
   565.0000       565.0000       565.0000       565.0000       565.0000    
   565.0000       565.0000       565.0000       565.0000       565.0000    
   565.0000       565.0000       565.0000       565.0000       565.0000    
 VARIABLE 2D REAL ARRAY FOR A LAYER:
   MODEL LAYER BOTTOM EL.
           1
   544.0000       544.0000       544.0000       544.0000       544.0000    
   544.0000       544.0000       544.0000       544.0000       544.0000    
   544.0000       544.0000       544.0000       544.0000       544.0000    
   544.0000       544.0000       544.0000       544.0000       544.0000    
   544.0000       544.0000       544.0000       544.0000       544.0000    
   544.0000       544.0000       544.0000       544.0000       544.0000    
   544.0000       544.0000       544.0000       544.0000       544.0000    
   544.0000       544.0000       544.0000       544.0000       544.0000    
   544.0000       544.0000       544.0000       544.0000       544.0000    
   544.0000       544.0000       544.0000       544.0000       544.0000    
   544.0000       544.0000       544.0000       544.0000       544.0000    
   544.0000       544.0000       544.0000       544.0000       544.0000    
   544.0000       544.0000       544.0000       544.0000       544.0000    
   544.0000       544.0000       544.0000       544.0000       544.0000    
   544.0000       544.0000       544.0000       544.0000       544.0000    
   544.0000       544.0000       544.0000       544.0000       544.0000    
   544.0000       544.0000       544.0000       544.0000       544.0000    
   544.0000       544.0000       544.0000       544.0000       544.0000    
   544.0000       544.0000       544.0000       544.0000       544.0000    
   544.0000       544.0000       544.0000       544.0000       544.0000    
   544.0000       544.0000       544.0000       544.0000       544.0000    
   544.0000       544.0000       544.0000       544.0000       544.0000    
   544.0000       544.0000       544.0000       544.0000       544.0000    
   544.0000       544.0000       544.0000       544.0000       544.0000    
   544.0000       544.0000       544.0000       544.0000       544.0000    
   544.0000       544.0000       544.0000       544.0000       544.0000    
   544.0000       544.0000       544.0000       544.0000       544.0000    
   544.0000       544.0000       544.0000       544.0000       544.0000    
   544.0000       544.0000       544.0000       544.0000       544.0000    
   544.0000       544.0000       544.0000       544.0000       544.0000    
   544.0000       544.0000       544.0000       544.0000       544.0000    
   544.0000       544.0000       544.0000       544.0000       544.0000    
   544.0000       544.0000       544.0000       544.0000       544.0000    
   544.0000       544.0000       544.0000       544.0000       544.0000    
   544.0000       544.0000       544.0000       544.0000       544.0000    
   544.0000       544.0000       544.0000       544.0000       544.0000    
   544.0000       544.0000       544.0000       544.0000       544.0000    
   544.0000       544.0000       544.0000       544.0000       544.0000    
   544.0000       544.0000       544.0000       544.0000       544.0000    
   544.0000       544.0000       544.0000       544.0000       544.0000    
   544.0000       544.0000       544.0000       544.0000       544.0000    
   544.0000       544.0000       544.0000       544.0000       544.0000    
   544.0000       544.0000       544.0000       544.0000       544.0000    
   544.0000       544.0000       544.0000       544.0000       544.0000    
   544.0000       544.0000       544.0000       544.0000       544.0000    
   544.0000       544.0000       544.0000       544.0000       544.0000    
   544.0000       544.0000       544.0000       544.0000       544.0000    
   544.0000       544.0000       544.0000       544.0000       544.0000    
   544.0000       544.0000       544.0000       544.0000       544.0000    
   544.0000       544.0000       544.0000       544.0000       544.0000    
   544.0000       544.0000       544.0000       544.0000       544.0000    
   544.0000       544.0000       544.0000       544.0000       544.0000    
   544.0000       544.0000       544.0000       544.0000       544.0000    
   544.0000       544.0000       544.0000       544.0000       544.0000    
   544.0000       544.0000       544.0000       544.0000       544.0000    
   544.0000       544.0000       544.0000       544.0000       544.0000    
   544.0000       544.0000       544.0000       544.0000       544.0000    
   544.0000       544.0000       544.0000       544.0000       544.0000    
   544.0000       544.0000       544.0000       544.0000       544.0000    
   544.0000       544.0000       544.0000       544.0000       544.0000    
   544.0000       544.0000       544.0000       544.0000       544.0000    
   544.0000       544.0000       544.0000       544.0000       544.0000    
   544.0000       544.0000       544.0000       544.0000       544.0000    
   544.0000       544.0000       544.0000       544.0000       544.0000    
   544.0000       544.0000       544.0000       544.0000       544.0000    
   544.0000       544.0000       544.0000       544.0000       544.0000    
   544.0000       544.0000       544.0000       544.0000       544.0000    
   544.0000       544.0000       544.0000       544.0000       544.0000    
   544.0000       544.0000       544.0000       544.0000       544.0000    
   544.0000       544.0000       544.0000       544.0000       544.0000    
   544.0000       544.0000       544.0000       544.0000       544.0000    
   544.0000       544.0000       544.0000       544.0000       544.0000    
   544.0000       544.0000       544.0000       544.0000       544.0000    
   544.0000       544.0000       544.0000       544.0000       544.0000    
   544.0000       544.0000       544.0000       544.0000       544.0000    
   544.0000       544.0000       544.0000       544.0000       544.0000    
   544.0000       544.0000       544.0000       544.0000       544.0000    
   544.0000       544.0000       544.0000       544.0000       544.0000    
   544.0000       544.0000       544.0000       544.0000       544.0000    
   544.0000       544.0000       544.0000       544.0000       544.0000    
   544.0000       544.0000       544.0000       544.0000       544.0000    
   544.0000       544.0000       544.0000       544.0000       544.0000    
   544.0000       544.0000       544.0000       544.0000       544.0000    
   544.0000       544.0000       544.0000       544.0000       544.0000    
   544.0000       544.0000       544.0000       544.0000       544.0000    
   544.0000       544.0000       544.0000       544.0000       544.0000    
   544.0000       544.0000       544.0000       544.0000       544.0000    
   544.0000       544.0000       544.0000       544.0000       544.0000    
   544.0000       544.0000       544.0000       544.0000       544.0000    
   544.0000       544.0000       544.0000       544.0000       544.0000    
   544.0000       544.0000       544.0000       544.0000       544.0000    
   544.0000       544.0000       544.0000       544.0000       544.0000    
   544.0000       544.0000       544.0000       544.0000       544.0000    
   544.0000       544.0000       544.0000       544.0000       544.0000    
   544.0000       544.0000       544.0000       544.0000       544.0000    
   544.0000       544.0000       544.0000       544.0000       544.0000    
   544.0000       544.0000       544.0000       544.0000       544.0000    
   544.0000       544.0000       544.0000       544.0000       544.0000    
   544.0000       544.0000       544.0000       544.0000       544.0000    
   544.0000       544.0000       544.0000       544.0000       544.0000    
   544.0000       544.0000       544.0000       544.0000       544.0000    
   544.0000       544.0000       544.0000       544.0000       544.0000    
   544.0000       544.0000       544.0000       544.0000       544.0000    
   544.0000       544.0000       544.0000       544.0000       544.0000    
   544.0000       544.0000       544.0000       544.0000       544.0000    
   544.0000       544.0000       544.0000       544.0000       544.0000    
   544.0000       544.0000       544.0000       544.0000       544.0000    
   544.0000       544.0000       544.0000       544.0000       544.0000    
   544.0000       544.0000       544.0000       544.0000       544.0000    
   544.0000       544.0000       544.0000       544.0000       544.0000    
   544.0000       544.0000       544.0000       544.0000       544.0000    
   544.0000       544.0000       544.0000       544.0000       544.0000    
   544.0000       544.0000       544.0000       544.0000       544.0000    
   544.0000       544.0000       544.0000       544.0000       544.0000    
   544.0000       544.0000       544.0000       544.0000       544.0000    
   544.0000       544.0000       544.0000       544.0000       544.0000    
   544.0000       544.0000       544.0000       544.0000       544.0000    
   544.0000       544.0000       544.0000       544.0000       544.0000    
   544.0000       544.0000       544.0000       544.0000       544.0000    
   544.0000       544.0000       544.0000       544.0000       544.0000    
   544.0000       544.0000       544.0000       544.0000       544.0000    
   544.0000       544.0000       544.0000       544.0000       544.0000    
   544.0000       544.0000       544.0000       544.0000       544.0000    
   544.0000       544.0000       544.0000       544.0000       544.0000    
   544.0000       544.0000       544.0000       544.0000       544.0000    
   544.0000       544.0000       544.0000       544.0000       544.0000    
   544.0000       544.0000       544.0000       544.0000       544.0000    
   544.0000       544.0000       544.0000       544.0000       544.0000    
   544.0000       544.0000       544.0000       544.0000       544.0000    
   544.0000       544.0000       544.0000       544.0000       544.0000    
   544.0000       544.0000       544.0000       544.0000       544.0000    
   544.0000       544.0000       544.0000       544.0000       544.0000    
   544.0000       544.0000       544.0000       544.0000       544.0000    
   544.0000       544.0000       544.0000       544.0000       544.0000    
   544.0000       544.0000       544.0000       544.0000       544.0000    
   544.0000       544.0000       544.0000       544.0000       544.0000    
   544.0000       544.0000       544.0000       544.0000       544.0000    
   544.0000       544.0000       544.0000       544.0000       544.0000    
   544.0000       544.0000       544.0000       544.0000       544.0000    
   544.0000       544.0000       544.0000       544.0000       544.0000    
   544.0000       544.0000       544.0000       544.0000       544.0000    
   544.0000       544.0000       544.0000       544.0000       544.0000    
   544.0000       544.0000       544.0000       544.0000       544.0000    
   544.0000       544.0000       544.0000       544.0000       544.0000    
   544.0000       544.0000       544.0000       544.0000       544.0000    
   544.0000       544.0000       544.0000       544.0000       544.0000    
   544.0000       544.0000       544.0000       544.0000       544.0000    
   544.0000       544.0000       544.0000       544.0000       544.0000    
   544.0000       544.0000       544.0000       544.0000       544.0000    
   544.0000       544.0000       544.0000       544.0000       544.0000    
   544.0000       544.0000       544.0000       544.0000       544.0000    
   544.0000       544.0000       544.0000       544.0000       544.0000    
   544.0000       544.0000       544.0000       544.0000       544.0000    
   544.0000       544.0000       544.0000       544.0000       544.0000    
   544.0000       544.0000       544.0000       544.0000       544.0000    
   544.0000       544.0000       544.0000       544.0000       544.0000    
   544.0000       544.0000       544.0000       544.0000       544.0000    
   544.0000       544.0000       544.0000       544.0000       544.0000    
   544.0000       544.0000       544.0000       544.0000       544.0000    
   544.0000       544.0000       544.0000       544.0000       544.0000    
   544.0000       544.0000       544.0000       544.0000       544.0000    
   544.0000       544.0000       544.0000       544.0000       544.0000    
   544.0000       544.0000       544.0000       544.0000       544.0000    
   544.0000       544.0000       544.0000       544.0000       544.0000    
   544.0000       544.0000       544.0000       544.0000       544.0000    
   544.0000       544.0000       544.0000       544.0000       544.0000    
   544.0000       544.0000       544.0000       544.0000       544.0000    
   544.0000       544.0000       544.0000       544.0000       544.0000    
   544.0000       544.0000       544.0000       544.0000       544.0000    
   544.0000       544.0000       544.0000       544.0000       544.0000    
   544.0000       544.0000       544.0000       544.0000       544.0000    
   544.0000       544.0000       544.0000       544.0000       544.0000    
   544.0000       544.0000       544.0000       544.0000       544.0000    
   544.0000       544.0000       544.0000       544.0000       544.0000    
   544.0000       544.0000       544.0000       544.0000       544.0000    
   544.0000       544.0000       544.0000       544.0000       544.0000    
   544.0000       544.0000       544.0000       544.0000       544.0000    
   544.0000       544.0000       544.0000       544.0000       544.0000    
   544.0000       544.0000       544.0000       544.0000       544.0000    
   544.0000       544.0000       544.0000       544.0000       544.0000    
   544.0000       544.0000       544.0000       544.0000       544.0000    
   544.0000       544.0000       544.0000       544.0000       544.0000    
   544.0000       544.0000       544.0000       544.0000       544.0000    
   544.0000       544.0000       544.0000       544.0000       544.0000    
   544.0000       544.0000       544.0000       544.0000       544.0000    
   544.0000       544.0000       544.0000       544.0000       544.0000    
   544.0000       544.0000       544.0000       544.0000       544.0000    
   544.0000       544.0000       544.0000       544.0000       544.0000    
   544.0000       544.0000       544.0000       544.0000       544.0000    
   544.0000       544.0000       544.0000       544.0000       544.0000    
   544.0000       544.0000       544.0000       544.0000       544.0000    
   544.0000       544.0000       544.0000       544.0000       544.0000    
   544.0000       544.0000       544.0000       544.0000       544.0000    
   544.0000       544.0000       544.0000       544.0000       544.0000    
   544.0000       544.0000       544.0000       544.0000       544.0000    
   544.0000       544.0000       544.0000       544.0000       544.0000    
   544.0000       544.0000       544.0000       544.0000       544.0000    
   544.0000       544.0000       544.0000       544.0000       544.0000    
   544.0000       544.0000       544.0000       544.0000       544.0000    
   544.0000       544.0000       544.0000       544.0000       544.0000    
   544.0000       544.0000       544.0000       544.0000       544.0000    
   544.0000       544.0000       544.0000       544.0000       544.0000    
   544.0000       544.0000       544.0000       544.0000       544.0000    
   544.0000       544.0000       544.0000       544.0000       544.0000    
   544.0000       544.0000       544.0000       544.0000       544.0000    
   544.0000       544.0000       544.0000       544.0000       544.0000    
   544.0000       544.0000       544.0000       544.0000       544.0000    
   544.0000       544.0000       544.0000       544.0000       544.0000    
   544.0000       544.0000       544.0000       544.0000       544.0000    
   544.0000       544.0000       544.0000       544.0000       544.0000    
   544.0000       544.0000       544.0000       544.0000       544.0000    
   544.0000       544.0000       544.0000       544.0000       544.0000    
   544.0000       544.0000       544.0000       544.0000       544.0000    
   544.0000       544.0000       544.0000       544.0000       544.0000    
   544.0000       544.0000       544.0000       544.0000       544.0000    
   544.0000       544.0000       544.0000       544.0000       544.0000    
   544.0000       544.0000       544.0000       544.0000       544.0000    
   544.0000       544.0000       544.0000       544.0000       544.0000    
   544.0000       544.0000       544.0000       544.0000       544.0000    
   544.0000       544.0000       544.0000       544.0000       544.0000    
   544.0000       544.0000       544.0000       544.0000       544.0000    
   544.0000       544.0000       544.0000       544.0000       544.0000    
   544.0000       544.0000       544.0000       544.0000       544.0000    
   544.0000       544.0000       544.0000       544.0000       544.0000    
   544.0000       544.0000       544.0000       544.0000       544.0000    
   544.0000       544.0000       544.0000       544.0000       544.0000    
   544.0000       544.0000       544.0000       544.0000       544.0000    
   544.0000       544.0000       544.0000       544.0000       544.0000    
   544.0000       544.0000       544.0000       544.0000       544.0000    
   544.0000       544.0000       544.0000       544.0000       544.0000    
   544.0000       544.0000       544.0000       544.0000       544.0000    
[...]
 an10      
 PARTYP:
 HANI
 Parval:
   1.000000    
 NCLU:
          17
 NUMINST:
           0
 MULTIPLIER ARRAY AND ZONE ARRAY FOR A LAYER:
           1
 NONE
 LITHO1
 NUMBER OF ZONES:
           1
 ZONE VALUES:
          19
 MULTIPLIER ARRAY AND ZONE ARRAY FOR A LAYER:
           2
 NONE
 LITHO2
 NUMBER OF ZONES:
           1
 ZONE VALUES:
          19
 MULTIPLIER ARRAY AND ZONE ARRAY FOR A LAYER:
           3
 NONE
 LITHO3
 NUMBER OF ZONES:
           1
 ZONE VALUES:
          19
 MULTIPLIER ARRAY AND ZONE ARRAY FOR A LAYER:
           4
 NONE
 LITHO4
 NUMBER OF ZONES:
           1
 ZONE VALUES:
          19
 MULTIPLIER ARRAY AND ZONE ARRAY FOR A LAYER:
           5
 NONE
 LITHO5
 NUMBER OF ZONES:
           1
 ZONE VALUES:
          19
 MULTIPLIER ARRAY AND ZONE ARRAY FOR A LAYER:
           6
 NONE
 LITHO6
 NUMBER OF ZONES:
           1
 ZONE VALUES:
          19
 MULTIPLIER ARRAY AND ZONE ARRAY FOR A LAYER:
           7
 NONE
 LITHO7
 NUMBER OF ZONES:
           1
 ZONE VALUES:
          19
 MULTIPLIER ARRAY AND ZONE ARRAY FOR A LAYER:
           8
 NONE
 LITHO8
 NUMBER OF ZONES:
           1
 ZONE VALUES:
          19
 MULTIPLIER ARRAY AND ZONE ARRAY FOR A LAYER:
           9
 NONE
 LITHO9
 NUMBER OF ZONES:
           1
 ZONE VALUES:
          19
 MULTIPLIER ARRAY AND ZONE ARRAY FOR A LAYER:
          10
 NONE
 LITHO10
 NUMBER OF ZONES:
           1
 ZONE VALUES:
          19
 MULTIPLIER ARRAY AND ZONE ARRAY FOR A LAYER:
          11
 NONE
 LITHO11
 NUMBER OF ZONES:
           1
 ZONE VALUES:
          19
 MULTIPLIER ARRAY AND ZONE ARRAY FOR A LAYER:
          12
 NONE
 LITHO12
 NUMBER OF ZONES:
           1
 ZONE VALUES:
          19
 MULTIPLIER ARRAY AND ZONE ARRAY FOR A LAYER:
          13
 NONE
 LITHO13
 NUMBER OF ZONES:
           1
 ZONE VALUES:
          19
 MULTIPLIER ARRAY AND ZONE ARRAY FOR A LAYER:
          14
 NONE
 LITHO14
 NUMBER OF ZONES:
           1
 ZONE VALUES:
          19
 MULTIPLIER ARRAY AND ZONE ARRAY FOR A LAYER:
          15
 NONE
 LITHO15
 NUMBER OF ZONES:
           1
 ZONE VALUES:
          19
 MULTIPLIER ARRAY AND ZONE ARRAY FOR A LAYER:
          16
 NONE
 LITHO16
 NUMBER OF ZONES:
           1
 ZONE VALUES:
          19
 MULTIPLIER ARRAY AND ZONE ARRAY FOR A LAYER:
          17
 NONE
 LITHO17
 NUMBER OF ZONES:
           1
 ZONE VALUES:
          19
 PARNAM:
 an11      
 PARTYP:
 HANI
 Parval:
   1.000000    
 NCLU:
          17
 NUMINST:
           0
 MULTIPLIER ARRAY AND ZONE ARRAY FOR A LAYER:
           1
 NONE
 LITHO1
 NUMBER OF ZONES:
           1
 ZONE VALUES:
          20
 MULTIPLIER ARRAY AND ZONE ARRAY FOR A LAYER:
           2
 NONE
 LITHO2
 NUMBER OF ZONES:
           1
 ZONE VALUES:
          20
 MULTIPLIER ARRAY AND ZONE ARRAY FOR A LAYER:
           3
 NONE
 LITHO3
 NUMBER OF ZONES:
           1
 ZONE VALUES:
          20
 MULTIPLIER ARRAY AND ZONE ARRAY FOR A LAYER:
           4
 NONE
 LITHO4
 NUMBER OF ZONES:
           1
 ZONE VALUES:
          20
 MULTIPLIER ARRAY AND ZONE ARRAY FOR A LAYER:
           5
 NONE
 LITHO5
 NUMBER OF ZONES:
           1
 ZONE VALUES:
          20
 MULTIPLIER ARRAY AND ZONE ARRAY FOR A LAYER:
           6
 NONE
 LITHO6
 NUMBER OF ZONES:
           1
 ZONE VALUES:
          20
 MULTIPLIER ARRAY AND ZONE ARRAY FOR A LAYER:
           7
 NONE
 LITHO7
 NUMBER OF ZONES:
           1
 ZONE VALUES:
          20
 MULTIPLIER ARRAY AND ZONE ARRAY FOR A LAYER:
           8
 NONE
 LITHO8
 NUMBER OF ZONES:
           1
 ZONE VALUES:
          20
 MULTIPLIER ARRAY AND ZONE ARRAY FOR A LAYER:
           9
 NONE
 LITHO9
 NUMBER OF ZONES:
           1
 ZONE VALUES:
          20
 MULTIPLIER ARRAY AND ZONE ARRAY FOR A LAYER:
          10
 NONE
 LITHO10
 NUMBER OF ZONES:
           1
 ZONE VALUES:
          20
 MULTIPLIER ARRAY AND ZONE ARRAY FOR A LAYER:
          11
 NONE
 LITHO11
 NUMBER OF ZONES:
           1
 ZONE VALUES:
          20
 MULTIPLIER ARRAY AND ZONE ARRAY FOR A LAYER:
          12
 NONE
 LITHO12
 NUMBER OF ZONES:
           1
 ZONE VALUES:
          20
 MULTIPLIER ARRAY AND ZONE ARRAY FOR A LAYER:
          13
 NONE
 LITHO13
 NUMBER OF ZONES:
           1
 ZONE VALUES:
          20
 MULTIPLIER ARRAY AND ZONE ARRAY FOR A LAYER:
          14
 NONE
 LITHO14
 NUMBER OF ZONES:
           1
 ZONE VALUES:
          20
 MULTIPLIER ARRAY AND ZONE ARRAY FOR A LAYER:
          15
 NONE
 LITHO15
 NUMBER OF ZONES:
           1
 ZONE VALUES:
          20
 MULTIPLIER ARRAY AND ZONE ARRAY FOR A LAYER:
          16
 NONE
 LITHO16
 NUMBER OF ZONES:
           1
 ZONE VALUES:
          20
 MULTIPLIER ARRAY AND ZONE ARRAY FOR A LAYER:
          17
 NONE
 LITHO17
 NUMBER OF ZONES:
           1
 ZONE VALUES:
          20
 PARNAM:
 an12      
 PARTYP:
 HANI
 Parval:
   1.000000    
 NCLU:
          17
 NUMINST:
           0
 MULTIPLIER ARRAY AND ZONE ARRAY FOR A LAYER:
           1
 NONE
 LITHO1
 NUMBER OF ZONES:
           1
 ZONE VALUES:
          24
 MULTIPLIER ARRAY AND ZONE ARRAY FOR A LAYER:
           2
 NONE
 LITHO2
 NUMBER OF ZONES:
           1
 ZONE VALUES:
          24
 MULTIPLIER ARRAY AND ZONE ARRAY FOR A LAYER:
           3
 NONE
 LITHO3
 NUMBER OF ZONES:
           1
 ZONE VALUES:
          24
 MULTIPLIER ARRAY AND ZONE ARRAY FOR A LAYER:
           4
 NONE
 LITHO4
 NUMBER OF ZONES:
           1
 ZONE VALUES:
          24
 MULTIPLIER ARRAY AND ZONE ARRAY FOR A LAYER:
           5
 NONE
 LITHO5
 NUMBER OF ZONES:
           1
 ZONE VALUES:
          24
 MULTIPLIER ARRAY AND ZONE ARRAY FOR A LAYER:
           6
 NONE
 LITHO6
 NUMBER OF ZONES:
           1
 ZONE VALUES:
          24
 MULTIPLIER ARRAY AND ZONE ARRAY FOR A LAYER:
           7
 NONE
 LITHO7
 NUMBER OF ZONES:
           1
 ZONE VALUES:
          24
 MULTIPLIER ARRAY AND ZONE ARRAY FOR A LAYER:
           8
 NONE
 LITHO8
 NUMBER OF ZONES:
           1
 ZONE VALUES:
          24
 MULTIPLIER ARRAY AND ZONE ARRAY FOR A LAYER:
           9
 NONE
 LITHO9
 NUMBER OF ZONES:
           1
 ZONE VALUES:
          24
 MULTIPLIER ARRAY AND ZONE ARRAY FOR A LAYER:
          10
 NONE
 LITHO10
 NUMBER OF ZONES:
           1
 ZONE VALUES:
          24
 MULTIPLIER ARRAY AND ZONE ARRAY FOR A LAYER:
          11
 NONE
 LITHO11
 NUMBER OF ZONES:
           1
 ZONE VALUES:
          24
 MULTIPLIER ARRAY AND ZONE ARRAY FOR A LAYER:
          12
 NONE
 LITHO12
 NUMBER OF ZONES:
           1
 ZONE VALUES:
          24
 MULTIPLIER ARRAY AND ZONE ARRAY FOR A LAYER:
          13
 NONE
 LITHO13
 NUMBER OF ZONES:
           1
 ZONE VALUES:
          24
 MULTIPLIER ARRAY AND ZONE ARRAY FOR A LAYER:
          14
 NONE
 LITHO14
 NUMBER OF ZONES:
           1
 ZONE VALUES:
          24
 MULTIPLIER ARRAY AND ZONE ARRAY FOR A LAYER:
          15
 NONE
 LITHO15
 NUMBER OF ZONES:
           1
 ZONE VALUES:
          24
 MULTIPLIER ARRAY AND ZONE ARRAY FOR A LAYER:
          16
 NONE
 LITHO16
 NUMBER OF ZONES:
           1
 ZONE VALUES:
          24
 MULTIPLIER ARRAY AND ZONE ARRAY FOR A LAYER:
          17
 NONE
 LITHO17
 NUMBER OF ZONES:
           1
 ZONE VALUES:
          24
 PARNAM:
 an13      
 PARTYP:
 HANI
 Parval:
   1.000000    
 NCLU:
          17
 NUMINST:
           0
 MULTIPLIER ARRAY AND ZONE ARRAY FOR A LAYER:
           1
 NONE
 LITHO1
 NUMBER OF ZONES:
           1
 ZONE VALUES:
          25
 MULTIPLIER ARRAY AND ZONE ARRAY FOR A LAYER:
           2
 NONE
 LITHO2
 NUMBER OF ZONES:
           1
 ZONE VALUES:
          25
 MULTIPLIER ARRAY AND ZONE ARRAY FOR A LAYER:
           3
 NONE
 LITHO3
 NUMBER OF ZONES:
           1
 ZONE VALUES:
          25
 MULTIPLIER ARRAY AND ZONE ARRAY FOR A LAYER:
           4
 NONE
 LITHO4
 NUMBER OF ZONES:
           1
 ZONE VALUES:
          25
 MULTIPLIER ARRAY AND ZONE ARRAY FOR A LAYER:
           5
 NONE
 LITHO5
 NUMBER OF ZONES:
           1
 ZONE VALUES:
          25
 MULTIPLIER ARRAY AND ZONE ARRAY FOR A LAYER:
           6
 NONE
 LITHO6
 NUMBER OF ZONES:
           1
 ZONE VALUES:
          25
 MULTIPLIER ARRAY AND ZONE ARRAY FOR A LAYER:
           7
 NONE
 LITHO7
 NUMBER OF ZONES:
           1
 ZONE VALUES:
          25
 MULTIPLIER ARRAY AND ZONE ARRAY FOR A LAYER:
           8
 NONE
 LITHO8
 NUMBER OF ZONES:
           1
 ZONE VALUES:
          25
 MULTIPLIER ARRAY AND ZONE ARRAY FOR A LAYER:
           9
 NONE
 LITHO9
 NUMBER OF ZONES:
           1
 ZONE VALUES:
          25
 MULTIPLIER ARRAY AND ZONE ARRAY FOR A LAYER:
          10
 NONE
 LITHO10
 NUMBER OF ZONES:
           1
 ZONE VALUES:
          25
 MULTIPLIER ARRAY AND ZONE ARRAY FOR A LAYER:
          11
 NONE
 LITHO11
 NUMBER OF ZONES:
           1
 ZONE VALUES:
          25
 MULTIPLIER ARRAY AND ZONE ARRAY FOR A LAYER:
          12
 NONE
 LITHO12
 NUMBER OF ZONES:
           1
 ZONE VALUES:
          25
 MULTIPLIER ARRAY AND ZONE ARRAY FOR A LAYER:
          13
 NONE
 LITHO13
 NUMBER OF ZONES:
           1
 ZONE VALUES:
          25
 MULTIPLIER ARRAY AND ZONE ARRAY FOR A LAYER:
          14
 NONE
 LITHO14
 NUMBER OF ZONES:
           1
 ZONE VALUES:
          25
 MULTIPLIER ARRAY AND ZONE ARRAY FOR A LAYER:
          15
 NONE
 LITHO15
 NUMBER OF ZONES:
           1
 ZONE VALUES:
          25
 MULTIPLIER ARRAY AND ZONE ARRAY FOR A LAYER:
          16
 NONE
 LITHO16
 NUMBER OF ZONES:
           1
 ZONE VALUES:
          25
 MULTIPLIER ARRAY AND ZONE ARRAY FOR A LAYER:
          17
 NONE
 LITHO17
 NUMBER OF ZONES:
           1
 ZONE VALUES:
          25
 PARNAM:
 an14      
 PARTYP:
 HANI
 Parval:
   1.000000    
 NCLU:
          17
 NUMINST:
           0
 MULTIPLIER ARRAY AND ZONE ARRAY FOR A LAYER:
           1
 NONE
 LITHO1
 NUMBER OF ZONES:
           1
 ZONE VALUES:
          27
 MULTIPLIER ARRAY AND ZONE ARRAY FOR A LAYER:
           2
 NONE
 LITHO2
 NUMBER OF ZONES:
           1
 ZONE VALUES:
          27
 MULTIPLIER ARRAY AND ZONE ARRAY FOR A LAYER:
           3
 NONE
 LITHO3
 NUMBER OF ZONES:
           1
 ZONE VALUES:
          27
 MULTIPLIER ARRAY AND ZONE ARRAY FOR A LAYER:
           4
 NONE
 LITHO4
 NUMBER OF ZONES:
           1
 ZONE VALUES:
          27
 MULTIPLIER ARRAY AND ZONE ARRAY FOR A LAYER:
           5
 NONE
 LITHO5
 NUMBER OF ZONES:
           1
 ZONE VALUES:
          27
 MULTIPLIER ARRAY AND ZONE ARRAY FOR A LAYER:
           6
 NONE
 LITHO6
 NUMBER OF ZONES:
           1
 ZONE VALUES:
          27
 MULTIPLIER ARRAY AND ZONE ARRAY FOR A LAYER:
           7
 NONE
 LITHO7
 NUMBER OF ZONES:
           1
 ZONE VALUES:
          27
 MULTIPLIER ARRAY AND ZONE ARRAY FOR A LAYER:
           8
 NONE
 LITHO8
 NUMBER OF ZONES:
           1
 ZONE VALUES:
          27
 MULTIPLIER ARRAY AND ZONE ARRAY FOR A LAYER:
           9
 NONE
 LITHO9
 NUMBER OF ZONES:
           1
 ZONE VALUES:
          27
 MULTIPLIER ARRAY AND ZONE ARRAY FOR A LAYER:
          10
 NONE
 LITHO10
 NUMBER OF ZONES:
           1
 ZONE VALUES:
          27
 MULTIPLIER ARRAY AND ZONE ARRAY FOR A LAYER:
          11
 NONE
 LITHO11
 NUMBER OF ZONES:
           1
 ZONE VALUES:
          27
 MULTIPLIER ARRAY AND ZONE ARRAY FOR A LAYER:
          12
 NONE
 LITHO12
 NUMBER OF ZONES:
           1
 ZONE VALUES:
          27
 MULTIPLIER ARRAY AND ZONE ARRAY FOR A LAYER:
          13
 NONE
 LITHO13
 NUMBER OF ZONES:
           1
 ZONE VALUES:
          27
 MULTIPLIER ARRAY AND ZONE ARRAY FOR A LAYER:
          14
 NONE
 LITHO14
 NUMBER OF ZONES:
           1
 ZONE VALUES:
          27
 MULTIPLIER ARRAY AND ZONE ARRAY FOR A LAYER:
          15
 NONE
 LITHO15
 NUMBER OF ZONES:
           1
 ZONE VALUES:
          27
 MULTIPLIER ARRAY AND ZONE ARRAY FOR A LAYER:
          16
 NONE
 LITHO16
 NUMBER OF ZONES:
           1
 ZONE VALUES:
          27
 MULTIPLIER ARRAY AND ZONE ARRAY FOR A LAYER:
          17
 NONE
 LITHO17
 NUMBER OF ZONES:
           1
 ZONE VALUES:
          27
 PARNAM:
 an15      
 PARTYP:
 HANI
 Parval:
   1.000000    
 NCLU:
          17
 NUMINST:
           0
 MULTIPLIER ARRAY AND ZONE ARRAY FOR A LAYER:
           1
 NONE
 LITHO1
 NUMBER OF ZONES:
           1
 ZONE VALUES:
          33
 MULTIPLIER ARRAY AND ZONE ARRAY FOR A LAYER:
           2
 NONE
 LITHO2
 NUMBER OF ZONES:
           1
 ZONE VALUES:
          33
 MULTIPLIER ARRAY AND ZONE ARRAY FOR A LAYER:
           3
 NONE
 LITHO3
 NUMBER OF ZONES:
           1
 ZONE VALUES:
          33
 MULTIPLIER ARRAY AND ZONE ARRAY FOR A LAYER:
           4
 NONE
 LITHO4
 NUMBER OF ZONES:
           1
 ZONE VALUES:
          33
 MULTIPLIER ARRAY AND ZONE ARRAY FOR A LAYER:
           5
 NONE
 LITHO5
 NUMBER OF ZONES:
           1
 ZONE VALUES:
          33
 MULTIPLIER ARRAY AND ZONE ARRAY FOR A LAYER:
           6
 NONE
 LITHO6
 NUMBER OF ZONES:
           1
 ZONE VALUES:
          33
 MULTIPLIER ARRAY AND ZONE ARRAY FOR A LAYER:
           7
 NONE
 LITHO7
 NUMBER OF ZONES:
           1
 ZONE VALUES:
          33
 MULTIPLIER ARRAY AND ZONE ARRAY FOR A LAYER:
           8
 NONE
 LITHO8
 NUMBER OF ZONES:
           1
 ZONE VALUES:
          33
 MULTIPLIER ARRAY AND ZONE ARRAY FOR A LAYER:
           9
 NONE
 LITHO9
 NUMBER OF ZONES:
           1
 ZONE VALUES:
          33
 MULTIPLIER ARRAY AND ZONE ARRAY FOR A LAYER:
          10
 NONE
 LITHO10
 NUMBER OF ZONES:
           1
 ZONE VALUES:
          33
 MULTIPLIER ARRAY AND ZONE ARRAY FOR A LAYER:
          11
 NONE
 LITHO11
 NUMBER OF ZONES:
           1
 ZONE VALUES:
          33
 MULTIPLIER ARRAY AND ZONE ARRAY FOR A LAYER:
          12
 NONE
 LITHO12
 NUMBER OF ZONES:
           1
 ZONE VALUES:
          33
 MULTIPLIER ARRAY AND ZONE ARRAY FOR A LAYER:
          13
 NONE
 LITHO13
 NUMBER OF ZONES:
           1
 ZONE VALUES:
          33
 MULTIPLIER ARRAY AND ZONE ARRAY FOR A LAYER:
          14
 NONE
 LITHO14
 NUMBER OF ZONES:
           1
 ZONE VALUES:
          33
 MULTIPLIER ARRAY AND ZONE ARRAY FOR A LAYER:
          15
 NONE
 LITHO15
 NUMBER OF ZONES:
           1
 ZONE VALUES:
          33
 MULTIPLIER ARRAY AND ZONE ARRAY FOR A LAYER:
          16
 NONE
 LITHO16
 NUMBER OF ZONES:
           1
 ZONE VALUES:
          33
 MULTIPLIER ARRAY AND ZONE ARRAY FOR A LAYER:
          17
 NONE
 LITHO17
 NUMBER OF ZONES:
           1
 ZONE VALUES:
          33
 PARNAM:
 an16      
 PARTYP:
 HANI
 Parval:
   1.000000    
 NCLU:
          17
 NUMINST:
           0
 MULTIPLIER ARRAY AND ZONE ARRAY FOR A LAYER:
           1
 NONE
 LITHO1
 NUMBER OF ZONES:
           1
 ZONE VALUES:
          34
 MULTIPLIER ARRAY AND ZONE ARRAY FOR A LAYER:
           2
 NONE
 LITHO2
 NUMBER OF ZONES:
           1
 ZONE VALUES:
          34
 MULTIPLIER ARRAY AND ZONE ARRAY FOR A LAYER:
           3
 NONE
 LITHO3
 NUMBER OF ZONES:
           1
 ZONE VALUES:
          34
 MULTIPLIER ARRAY AND ZONE ARRAY FOR A LAYER:
           4
 NONE
 LITHO4
 NUMBER OF ZONES:
           1
 ZONE VALUES:
          34
 MULTIPLIER ARRAY AND ZONE ARRAY FOR A LAYER:
           5
 NONE
 LITHO5
 NUMBER OF ZONES:
           1
 ZONE VALUES:
          34
 MULTIPLIER ARRAY AND ZONE ARRAY FOR A LAYER:
           6
 NONE
 LITHO6
 NUMBER OF ZONES:
           1
 ZONE VALUES:
          34
 MULTIPLIER ARRAY AND ZONE ARRAY FOR A LAYER:
           7
 NONE
 LITHO7
 NUMBER OF ZONES:
           1
 ZONE VALUES:
          34
 MULTIPLIER ARRAY AND ZONE ARRAY FOR A LAYER:
           8
 NONE
 LITHO8
 NUMBER OF ZONES:
           1
 ZONE VALUES:
          34
 MULTIPLIER ARRAY AND ZONE ARRAY FOR A LAYER:
           9
 NONE
 LITHO9
 NUMBER OF ZONES:
           1
 ZONE VALUES:
          34
 MULTIPLIER ARRAY AND ZONE ARRAY FOR A LAYER:
          10
 NONE
 LITHO10
 NUMBER OF ZONES:
           1
 ZONE VALUES:
          34
 MULTIPLIER ARRAY AND ZONE ARRAY FOR A LAYER:
          11
 NONE
 LITHO11
 NUMBER OF ZONES:
           1
 ZONE VALUES:
          34
 MULTIPLIER ARRAY AND ZONE ARRAY FOR A LAYER:
          12
 NONE
 LITHO12
 NUMBER OF ZONES:
           1
 ZONE VALUES:
          34
 MULTIPLIER ARRAY AND ZONE ARRAY FOR A LAYER:
          13
 NONE
 LITHO13
 NUMBER OF ZONES:
           1
 ZONE VALUES:
          34
 MULTIPLIER ARRAY AND ZONE ARRAY FOR A LAYER:
          14
 NONE
 LITHO14
 NUMBER OF ZONES:
           1
 ZONE VALUES:
          34
 MULTIPLIER ARRAY AND ZONE ARRAY FOR A LAYER:
          15
 NONE
 LITHO15
 NUMBER OF ZONES:
           1
 ZONE VALUES:
          34
 MULTIPLIER ARRAY AND ZONE ARRAY FOR A LAYER:
          16
 NONE
 LITHO16
 NUMBER OF ZONES:
           1
 ZONE VALUES:
          34
 MULTIPLIER ARRAY AND ZONE ARRAY FOR A LAYER:
          17
 NONE
 LITHO17
 NUMBER OF ZONES:
           1
 ZONE VALUES:
          34
 PARNAM:
 an17      
 PARTYP:
 HANI
 Parval:
   1.000000    
 NCLU:
          17
 NUMINST:
           0
 MULTIPLIER ARRAY AND ZONE ARRAY FOR A LAYER:
           1
 NONE
 LITHO1
 NUMBER OF ZONES:
           1
 ZONE VALUES:
          35
 MULTIPLIER ARRAY AND ZONE ARRAY FOR A LAYER:
           2
 NONE
 LITHO2
 NUMBER OF ZONES:
           1
 ZONE VALUES:
          35
 MULTIPLIER ARRAY AND ZONE ARRAY FOR A LAYER:
           3
 NONE
 LITHO3
 NUMBER OF ZONES:
           1
 ZONE VALUES:
          35
 MULTIPLIER ARRAY AND ZONE ARRAY FOR A LAYER:
           4
 NONE
 LITHO4
 NUMBER OF ZONES:
           1
 ZONE VALUES:
          35
 MULTIPLIER ARRAY AND ZONE ARRAY FOR A LAYER:
           5
 NONE
 LITHO5
 NUMBER OF ZONES:
           1
 ZONE VALUES:
          35
 MULTIPLIER ARRAY AND ZONE ARRAY FOR A LAYER:
           6
 NONE
 LITHO6
 NUMBER OF ZONES:
           1
 ZONE VALUES:
          35
 MULTIPLIER ARRAY AND ZONE ARRAY FOR A LAYER:
           7
 NONE
 LITHO7
 NUMBER OF ZONES:
           1
 ZONE VALUES:
          35
 MULTIPLIER ARRAY AND ZONE ARRAY FOR A LAYER:
           8
 NONE
 LITHO8
 NUMBER OF ZONES:
           1
 ZONE VALUES:
          35
 MULTIPLIER ARRAY AND ZONE ARRAY FOR A LAYER:
           9
 NONE
 LITHO9
 NUMBER OF ZONES:
           1
 ZONE VALUES:
          35
 MULTIPLIER ARRAY AND ZONE ARRAY FOR A LAYER:
          10
 NONE
 LITHO10
 NUMBER OF ZONES:
           1
 ZONE VALUES:
          35
 MULTIPLIER ARRAY AND ZONE ARRAY FOR A LAYER:
          11
 NONE
 LITHO11
 NUMBER OF ZONES:
           1
 ZONE VALUES:
          35
 MULTIPLIER ARRAY AND ZONE ARRAY FOR A LAYER:
          12
 NONE
 LITHO12
 NUMBER OF ZONES:
           1
 ZONE VALUES:
          35
 MULTIPLIER ARRAY AND ZONE ARRAY FOR A LAYER:
          13
 NONE
 LITHO13
 NUMBER OF ZONES:
           1
 ZONE VALUES:
          35
 MULTIPLIER ARRAY AND ZONE ARRAY FOR A LAYER:
          14
 NONE
 LITHO14
 NUMBER OF ZONES:
           1
 ZONE VALUES:
          35
 MULTIPLIER ARRAY AND ZONE ARRAY FOR A LAYER:
          15
 NONE
 LITHO15
 NUMBER OF ZONES:
           1
 ZONE VALUES:
          35
 MULTIPLIER ARRAY AND ZONE ARRAY FOR A LAYER:
          16
 NONE
 LITHO16
 NUMBER OF ZONES:
           1
 ZONE VALUES:
          35
 MULTIPLIER ARRAY AND ZONE ARRAY FOR A LAYER:
          17
 NONE
 LITHO17
 NUMBER OF ZONES:
           1
 ZONE VALUES:
          35
 KPER:
           1

 Run end date and time (yyyy/mm/dd hh:mm:ss): 2023/10/03 10:18:56
 Elapsed run time:  0.572 Seconds

